Version 4
SHEET 1 5128 2404
WIRE 144 -240 16 -240
WIRE 320 -240 224 -240
WIRE 16 -224 16 -240
WIRE 432 32 224 32
WIRE 448 32 432 32
WIRE 528 32 448 32
WIRE 176 112 -96 112
WIRE 384 112 256 112
WIRE 224 128 224 112
WIRE 224 144 224 128
WIRE 224 144 -16 144
WIRE 432 144 432 128
WIRE 608 144 432 144
WIRE 256 160 256 112
WIRE 256 160 64 160
WIRE 224 176 224 144
WIRE 288 176 224 176
WIRE 432 176 432 144
WIRE 432 176 368 176
WIRE -352 208 -592 208
WIRE -96 208 -96 112
WIRE -96 208 -160 208
WIRE 224 208 224 176
WIRE 432 208 432 176
WIRE -352 240 -528 240
WIRE -16 240 -16 144
WIRE -16 240 -160 240
WIRE -352 272 -528 272
WIRE 64 272 64 160
WIRE 64 272 -160 272
WIRE 176 288 128 288
WIRE 384 288 288 288
WIRE -352 304 -528 304
WIRE 64 304 -160 304
WIRE 320 304 224 304
WIRE 432 304 320 304
WIRE 64 320 64 304
WIRE 608 320 608 144
WIRE 608 320 64 320
WIRE -352 336 -528 336
WIRE 128 336 128 288
WIRE 128 336 -160 336
WIRE 288 336 288 288
WIRE 288 336 208 336
WIRE 320 352 320 304
WIRE 320 352 240 352
WIRE -352 368 -512 368
WIRE 208 368 208 336
WIRE 208 368 -160 368
WIRE 320 368 320 352
WIRE -352 400 -528 400
WIRE 240 400 240 352
WIRE 240 400 -160 400
WIRE 320 496 320 448
WIRE -592 512 -592 208
WIRE 240 512 240 400
WIRE 240 512 -592 512
FLAG 320 496 0
FLAG 16 -144 0
FLAG 448 32 Vs
FLAG 320 -240 Vs
SYMBOL nmos 176 32 R0
WINDOW 3 -53 -29 Left 2
SYMATTR Value IPD220N06L3
SYMATTR InstName M1
SYMBOL nmos 384 32 R0
SYMATTR InstName M2
SYMATTR Value IPD220N06L3
SYMBOL nmos 384 208 R0
SYMATTR InstName M4
SYMATTR Value IPD220N06L3
SYMBOL nmos 176 208 R0
WINDOW 3 -82 -3 Left 2
SYMATTR Value IPD220N06L3
SYMATTR InstName M3
SYMBOL ind 272 192 R270
WINDOW 0 -17 18 VTop 2
WINDOW 3 5 56 VBottom 2
SYMATTR InstName L1
SYMATTR Value 3m
SYMATTR SpiceLine Ipk=2 Rser=2.25
SYMBOL res 304 352 R0
SYMATTR InstName R1
SYMATTR Value .075
SYMATTR SpiceLine pwr=2
SYMBOL voltage 16 -240 R0
WINDOW 123 0 0 Left 2
WINDOW 39 24 124 Left 2
SYMATTR SpiceLine Rser=.01
SYMATTR InstName Vs
SYMATTR Value 28
SYMBOL ind 128 -224 R270
WINDOW 0 32 56 VTop 2
WINDOW 3 5 56 VBottom 2
SYMATTR InstName L2
SYMATTR Value 10µ
SYMBOL state -256 240 R0
SYMATTR InstName X1
SYMBOL localFilter 576 32 R0
SYMATTR InstName X9
TEXT -312 -352 Left 2 !.tran 1
