Version 4
SHEET 1 5128 2404
WIRE -176 -80 -304 -80
WIRE 0 -80 -96 -80
WIRE -304 -64 -304 -80
WIRE 432 32 224 32
WIRE 448 32 432 32
WIRE 640 32 448 32
WIRE 752 32 640 32
WIRE 816 32 752 32
WIRE 928 32 816 32
WIRE 992 32 928 32
WIRE 1056 32 992 32
WIRE 1184 32 1056 32
WIRE 1264 32 1184 32
WIRE 1408 32 1264 32
WIRE 640 48 640 32
WIRE 752 48 752 32
WIRE 816 48 816 32
WIRE 928 48 928 32
WIRE 992 48 992 32
WIRE 1056 48 1056 32
WIRE 1184 48 1184 32
WIRE 1264 48 1264 32
WIRE 1408 48 1408 32
WIRE 176 112 -96 112
WIRE 384 112 256 112
WIRE 224 128 224 112
WIRE 640 128 640 112
WIRE 752 128 752 112
WIRE 752 128 640 128
WIRE 816 128 816 112
WIRE 816 128 752 128
WIRE 928 128 928 112
WIRE 928 128 816 128
WIRE 992 128 992 112
WIRE 992 128 928 128
WIRE 1056 128 1056 112
WIRE 1056 128 992 128
WIRE 1184 128 1184 112
WIRE 1184 128 1056 128
WIRE 1264 128 1264 112
WIRE 1264 128 1184 128
WIRE 1408 128 1408 112
WIRE 1408 128 1264 128
WIRE 224 144 224 128
WIRE 224 144 -16 144
WIRE 432 144 432 128
WIRE 608 144 432 144
WIRE 256 160 256 112
WIRE 256 160 64 160
WIRE 640 160 640 128
WIRE 224 176 224 144
WIRE 288 176 224 176
WIRE 432 176 432 144
WIRE 432 176 368 176
WIRE -352 208 -592 208
WIRE -96 208 -96 112
WIRE -96 208 -160 208
WIRE 224 208 224 176
WIRE 432 208 432 176
WIRE -352 240 -528 240
WIRE -16 240 -16 144
WIRE -16 240 -160 240
WIRE -352 272 -528 272
WIRE 64 272 64 160
WIRE 64 272 -160 272
WIRE 176 288 128 288
WIRE 384 288 288 288
WIRE -352 304 -528 304
WIRE 64 304 -160 304
WIRE 320 304 224 304
WIRE 432 304 320 304
WIRE 64 320 64 304
WIRE 608 320 608 144
WIRE 608 320 64 320
WIRE -352 336 -528 336
WIRE 128 336 128 288
WIRE 128 336 -160 336
WIRE 288 336 288 288
WIRE 288 336 208 336
WIRE 320 352 320 304
WIRE 320 352 240 352
WIRE -352 368 -512 368
WIRE 208 368 208 336
WIRE 208 368 -160 368
WIRE 320 368 320 352
WIRE -352 400 -528 400
WIRE 240 400 240 352
WIRE 240 400 -160 400
WIRE 320 496 320 448
WIRE -592 512 -592 208
WIRE 240 512 240 400
WIRE 240 512 -592 512
FLAG 320 496 0
FLAG -304 16 0
FLAG 448 32 Vs
FLAG 0 -80 Vs
FLAG 640 160 0
SYMBOL nmos 176 32 R0
WINDOW 3 -53 -29 Left 2
SYMATTR Value IPD220N06L3
SYMATTR InstName M1
SYMBOL nmos 384 32 R0
SYMATTR InstName M2
SYMATTR Value IPD220N06L3
SYMBOL nmos 384 208 R0
SYMATTR InstName M4
SYMATTR Value IPD220N06L3
SYMBOL nmos 176 208 R0
WINDOW 3 -82 -3 Left 2
SYMATTR Value IPD220N06L3
SYMATTR InstName M3
SYMBOL ind 272 192 R270
WINDOW 0 -17 18 VTop 2
WINDOW 3 5 56 VBottom 2
SYMATTR InstName L1
SYMATTR Value 3m
SYMATTR SpiceLine Ipk=2 Rser=2.25
SYMBOL res 304 352 R0
SYMATTR InstName R1
SYMATTR Value .075
SYMATTR SpiceLine pwr=2
SYMBOL voltage -304 -80 R0
WINDOW 123 0 0 Left 2
WINDOW 39 24 124 Left 2
SYMATTR SpiceLine Rser=.01
SYMATTR InstName Vs
SYMATTR Value 28
SYMBOL ind -192 -64 R270
WINDOW 0 32 56 VTop 2
WINDOW 3 5 56 VBottom 2
SYMATTR InstName L2
SYMATTR Value 10µ
SYMBOL state -256 240 R0
SYMATTR InstName X1
SYMBOL cap 1168 48 R0
SYMATTR InstName C2
SYMATTR Value 10n
SYMATTR SpiceLine V=50 Irms=272m Rser=0.1 Lser=0
SYMBOL cap 1248 48 R0
SYMATTR InstName C3
SYMATTR Value 10n
SYMATTR SpiceLine V=50 Irms=272m Rser=0.1 Lser=.5n
SYMBOL polcap 624 48 R0
WINDOW 3 24 56 Left 2
SYMATTR Value 470µ
SYMATTR InstName C4
SYMATTR Description Capacitor
SYMATTR Type cap
SYMATTR SpiceLine V=35 Irms=.968 Rser=28m Lser=12n
SYMBOL cap 1392 48 R0
SYMATTR InstName C7
SYMATTR Value 250p
SYMATTR SpiceLine V=50 Irms=10 Rser=100u Lser=.01p
SYMBOL cap 976 48 R0
SYMATTR InstName C5
SYMATTR Value 85n
SYMATTR SpiceLine V=50 Irms=0 Rser=50m Lser=1n
SYMBOL cap 1040 48 R0
SYMATTR InstName C9
SYMATTR Value 85n
SYMATTR SpiceLine V=50 Irms=0 Rser=50m Lser=1n
SYMBOL cap 912 48 R0
SYMATTR InstName C11
SYMATTR Value 85n
SYMATTR SpiceLine V=50 Irms=0 Rser=50m Lser=1n
SYMBOL polcap 736 48 R0
WINDOW 3 24 56 Left 2
SYMATTR Value 22µ
SYMATTR InstName C6
SYMATTR Description Capacitor
SYMATTR Type cap
SYMATTR SpiceLine V=63 Irms=368m Rser=7.5m
SYMBOL polcap 800 48 R0
WINDOW 3 24 56 Left 2
SYMATTR Value 22µ
SYMATTR InstName C8
SYMATTR Description Capacitor
SYMATTR Type cap
SYMATTR SpiceLine V=63 Irms=368m Rser=7.5m
TEXT -552 48 Left 2 !.tran 50m
TEXT 672 296 VLeft 1 ;35ZLH470MEFC10X16
TEXT 1224 144 VRight 1 ;GRM188R71H103KA01
TEXT 992 160 VRight 1 ;08055C104KAT2A
TEXT 776 152 VRight 1 ;226CKS063M
