Version 4
SHEET 1 880 680
WIRE 192 80 192 64
WIRE 240 80 192 80
WIRE 320 80 240 80
WIRE 400 80 320 80
WIRE 320 144 240 144
WIRE 400 144 320 144
WIRE 240 160 240 144
FLAG 240 160 0
FLAG 192 64 V
SYMBOL polcap 224 80 R0
SYMATTR InstName C2
SYMATTR Value 68µ
SYMATTR SpiceLine V=35 Irms=2 Rser=20m Lser=5n
SYMBOL cap 304 80 R0
SYMATTR InstName C1
SYMATTR Value 4.7µ
SYMATTR SpiceLine V=50 Irms=0 Rser=5m Lser=1n
SYMBOL cap 384 80 R0
SYMATTR InstName C3
SYMATTR Value 0.01µ
SYMATTR SpiceLine V=50 Irms=272m Rser=0.391699 Lser=0 mfg="KEMET" pn="C0805C103K5RAC" type="X7R"
