Version 4
SHEET 1 2444 1624
WIRE -1392 -496 -1456 -496
WIRE -1280 -496 -1392 -496
WIRE -1120 -496 -1184 -496
WIRE -992 -496 -1120 -496
WIRE -864 -496 -992 -496
WIRE -816 -496 -864 -496
WIRE -688 -496 -736 -496
WIRE -592 -496 -688 -496
WIRE -384 -496 -496 -496
WIRE -288 -496 -384 -496
WIRE 0 -496 -288 -496
WIRE 48 -496 0 -496
WIRE 128 -496 48 -496
WIRE -992 -464 -992 -496
WIRE 0 -464 0 -496
WIRE -288 -448 -288 -496
WIRE -1264 -432 -1264 -448
WIRE -512 -432 -512 -448
WIRE -992 -384 -992 -400
WIRE -1392 -336 -1392 -496
WIRE -1360 -336 -1392 -336
WIRE -1264 -336 -1264 -352
WIRE -1248 -336 -1264 -336
WIRE -1040 -336 -1168 -336
WIRE -752 -336 -1040 -336
WIRE -592 -336 -752 -336
WIRE -512 -336 -512 -352
WIRE -512 -336 -592 -336
WIRE -288 -320 -288 -368
WIRE -176 -320 -192 -320
WIRE -96 -320 -176 -320
WIRE -80 -320 -96 -320
WIRE -592 -288 -592 -336
WIRE -512 -288 -512 -336
WIRE -176 -272 -176 -320
WIRE -96 -272 -96 -320
WIRE -1392 -240 -1392 -336
WIRE -1312 -240 -1312 -272
WIRE -1312 -240 -1328 -240
WIRE 368 -240 272 -240
WIRE -384 -224 -384 -496
WIRE -352 -224 -384 -224
WIRE -240 -224 -240 -256
WIRE -240 -224 -272 -224
WIRE -1312 -208 -1312 -240
WIRE 272 -208 272 -240
WIRE -240 -192 -240 -224
WIRE 0 -192 0 -400
WIRE 368 -192 336 -192
WIRE -592 -160 -592 -224
WIRE -176 -144 -176 -192
WIRE -96 -144 -96 -208
WIRE -96 -144 -176 -144
WIRE 304 -128 272 -128
WIRE 336 -128 336 -192
WIRE 336 -128 304 -128
WIRE -1312 -112 -1312 -128
WIRE -864 -112 -864 -496
WIRE -688 -112 -688 -496
WIRE -512 -112 -512 -208
WIRE -384 -112 -384 -224
WIRE 304 -112 304 -128
WIRE -1456 -96 -1456 -496
WIRE -176 -96 -176 -144
WIRE -1120 -48 -1120 -496
WIRE -976 -32 -992 -32
WIRE -944 -32 -976 -32
WIRE -240 -32 -240 -112
WIRE -240 -32 -320 -32
WIRE 48 -16 48 -496
WIRE -1040 32 -1040 -336
WIRE -944 32 -1040 32
WIRE -160 32 -320 32
WIRE 0 32 0 -112
WIRE 0 32 -160 32
WIRE -1120 96 -1120 32
WIRE -1120 96 -1216 96
WIRE -944 96 -1120 96
WIRE -160 96 -320 96
WIRE 48 96 48 64
WIRE 48 96 -160 96
WIRE -976 128 -976 -32
WIRE -1120 144 -1120 96
WIRE 48 144 48 96
WIRE 128 144 128 -496
WIRE 224 144 128 144
WIRE 272 144 224 144
WIRE 400 144 352 144
WIRE -1216 160 -1216 96
WIRE 224 160 224 144
WIRE 512 160 448 160
WIRE 128 176 128 144
WIRE 512 176 512 160
WIRE -512 192 -512 160
WIRE -512 192 -544 192
WIRE 464 208 448 208
WIRE -1456 272 -1456 -16
WIRE -1216 272 -1216 224
WIRE -1216 272 -1456 272
WIRE -1120 272 -1120 224
WIRE -1120 272 -1216 272
WIRE -976 272 -976 208
WIRE -976 272 -1120 272
WIRE -752 272 -752 160
WIRE -752 272 -976 272
WIRE -512 272 -512 256
WIRE -512 272 -752 272
WIRE 48 272 48 224
WIRE 48 272 -512 272
WIRE 128 272 128 240
WIRE 128 272 48 272
WIRE 224 272 224 240
WIRE 224 272 128 272
WIRE 400 272 400 224
WIRE 400 272 224 272
WIRE 464 272 464 208
WIRE 464 272 400 272
WIRE 512 272 512 256
WIRE 512 272 464 272
WIRE -1456 304 -1456 272
FLAG -1456 304 0
FLAG 128 -496 Vs
FLAG -80 -320 pgood
FLAG -752 -336 gate
FLAG -544 192 timer
FLAG -160 32 fault
FLAG -1312 -112 0
FLAG -1456 -496 Vin
FLAG -176 -96 0
FLAG -160 96 overv
FLAG -592 -160 0
FLAG 416 -256 Vin
FLAG 416 -176 sw
FLAG -992 -32 sw
FLAG 304 -112 0
FLAG -992 -384 0
SYMBOL voltage -1456 -112 R0
WINDOW 3 10 12 Left 2
WINDOW 0 -32 10 Left 2
WINDOW 123 0 0 Left 2
SYMATTR Value 28
SYMATTR InstName V1
SYMATTR SpiceLine Rser=10m Cpar=1p
SYMBOL polcap 112 176 R0
WINDOW 3 24 56 Left 2
SYMATTR Value 2000µ
SYMATTR InstName CL
SYMATTR SpiceLine V=35 Irms=3.67 Rser=0.03 Lser=0
SYMATTR Description Capacitor
SYMATTR Type cap
SYMBOL res 208 144 R0
WINDOW 0 37 53 Left 2
WINDOW 3 36 79 Left 2
SYMATTR InstName RL
SYMATTR Value 24
SYMBOL voltage 272 -224 R0
WINDOW 3 -138 -51 Invisible 2
WINDOW 123 0 0 Left 2
WINDOW 39 0 0 Left 2
SYMATTR Value PULSE(0 5 1 1U 1U 6 8)
SYMATTR InstName V2
SYMBOL sw 416 -160 M180
WINDOW 0 29 94 Left 2
WINDOW 3 -112 109 Left 2
SYMATTR InstName S1
SYMATTR Value SWITCH
SYMBOL res -1104 -64 M0
SYMATTR InstName R10
SYMATTR Value 698k
SYMBOL voltage 512 160 M0
WINDOW 3 -138 -51 Invisible 2
WINDOW 123 0 0 Left 2
WINDOW 39 0 0 Left 2
WINDOW 0 -35 12 Left 2
SYMATTR Value PULSE(0 5 3 1U 1U 0.25 0.5 5)
SYMATTR InstName V3
SYMBOL sw 400 240 R180
WINDOW 0 -51 3 Left 2
WINDOW 3 -112 109 Left 2
SYMATTR InstName S2
SYMATTR Value SWITCH
SYMBOL res 368 128 R90
WINDOW 0 59 74 VBottom 2
WINDOW 3 31 25 VTop 2
SYMATTR InstName R13
SYMATTR Value 0
SYMBOL nmos -592 -448 R270
WINDOW 0 20 103 VRight 2
WINDOW 3 72 -26 VRight 2
SYMATTR InstName M1
SYMATTR Value PSMN2R630YLC
SYMBOL res -496 -448 M0
SYMATTR InstName R2
SYMATTR Value 10
SYMBOL res -720 -512 R90
WINDOW 0 0 56 VBottom 2
WINDOW 3 32 56 VTop 2
SYMATTR InstName Rsense
SYMATTR Value 2m
SYMBOL res 32 -32 R0
SYMATTR InstName R5
SYMATTR Value 154k
SYMBOL res 64 128 M0
SYMATTR InstName R6
SYMATTR Value 4.99k
SYMBOL res -1104 128 M0
SYMATTR InstName R8
SYMATTR Value 100k
SYMBOL cap -528 192 R0
SYMATTR InstName C2
SYMATTR Value 100n
SYMBOL zener -1008 -400 M180
WINDOW 0 24 64 Left 2
WINDOW 3 24 0 Left 2
SYMATTR InstName D3
SYMATTR Value 1N5371B
SYMBOL npn -1264 -272 M270
WINDOW 0 42 62 VLeft 2
WINDOW 3 77 91 VLeft 2
SYMATTR InstName Q1
SYMATTR Value 2N3904
SYMBOL res -1152 -352 R90
WINDOW 0 57 94 VBottom 2
WINDOW 3 32 41 VTop 2
SYMATTR InstName R9
SYMATTR Value 1meg
SYMBOL diode -1392 -224 R270
WINDOW 0 32 32 VTop 2
WINDOW 3 -1 9 VBottom 2
SYMATTR InstName D4
SYMATTR Value 1N4148
SYMBOL nmos -1184 -448 M270
WINDOW 0 24 -5 VLeft 2
WINDOW 3 72 118 VLeft 2
SYMATTR InstName M2
SYMATTR Value PSMN2R630YLC
SYMBOL res -1280 -448 R0
SYMATTR InstName R1
SYMATTR Value 10
SYMBOL cap -576 -224 R180
WINDOW 0 24 56 Left 2
WINDOW 3 24 8 Left 2
SYMATTR InstName C1
SYMATTR Value 470n
SYMBOL res -1328 -112 M180
WINDOW 0 36 76 Left 2
WINDOW 3 36 40 Left 2
SYMATTR InstName R7
SYMATTR Value 1k
SYMBOL LED 16 -464 M0
SYMATTR InstName D1
SYMBOL npn -192 -256 M270
WINDOW 0 42 62 VLeft 2
WINDOW 3 77 91 VLeft 2
SYMATTR InstName Q2
SYMATTR Value 2N3904
SYMBOL res -256 -208 R0
SYMATTR InstName R3
SYMATTR Value 1k
SYMBOL res -256 -240 R90
WINDOW 0 0 56 VBottom 2
WINDOW 3 32 56 VTop 2
SYMATTR InstName R4
SYMATTR Value 100k
SYMBOL res -192 -288 R0
SYMATTR InstName R14
SYMATTR Value 100k
SYMBOL cap -112 -272 R0
SYMATTR InstName C3
SYMATTR Value 100n
SYMBOL res -304 -464 R0
SYMATTR InstName R15
SYMATTR Value 1k
SYMBOL res -528 -304 R0
SYMATTR InstName R16
SYMATTR Value 10k
SYMBOL res 16 -208 M0
SYMATTR InstName R18
SYMATTR Value 51
SYMBOL SpecialFunctions\\LT4356-3 -640 48 R0
SYMATTR InstName U1
SYMBOL res -960 112 M0
SYMATTR InstName R11
SYMATTR Value 10k
SYMBOL cap -1200 160 M0
SYMATTR InstName C4
SYMATTR Value 100n
TEXT -1128 312 Left 2 !.lib OptiMOS-P2_40V.lib
TEXT -808 312 Left 2 !.model SWITCH SW(ROn=.01 Roff=100Meg Vt=3 Vh=0)
TEXT 240 56 Left 3 ;Simulated load
TEXT 152 88 Left 2 ;(Connect R13 to enable fast pulsed load)
TEXT -1386 308 Left 2 !.tran 0 10 0 startup
RECTANGLE Normal 592 112 80 288 2
