Version 4
SHEET 1 2444 1624
WIRE -720 -304 -1104 -304
WIRE -576 -304 -720 -304
WIRE -448 -304 -576 -304
WIRE -416 -304 -448 -304
WIRE -320 -304 -336 -304
WIRE -16 -304 -320 -304
WIRE 144 -304 80 -304
WIRE 384 -304 144 -304
WIRE 480 -304 384 -304
WIRE 144 -288 144 -304
WIRE -576 -256 -576 -304
WIRE 64 -208 64 -256
WIRE 144 -208 144 -224
WIRE 144 -208 64 -208
WIRE -720 -192 -720 -304
WIRE 64 -192 64 -208
WIRE 384 -192 384 -304
WIRE -1408 -176 -1488 -176
WIRE -1264 -176 -1312 -176
WIRE -1184 -176 -1264 -176
WIRE -1104 -176 -1104 -304
WIRE -1104 -176 -1184 -176
WIRE -1184 -160 -1184 -176
WIRE -576 -160 -576 -192
WIRE -448 -112 -448 -304
WIRE -320 -112 -320 -304
WIRE -1264 -96 -1264 -176
WIRE 64 -80 64 -112
WIRE 64 -80 32 -80
WIRE -720 -48 -720 -112
WIRE -720 -48 -816 -48
WIRE -512 -48 -720 -48
WIRE 32 -48 32 -80
WIRE 32 -48 -256 -48
WIRE 64 -48 64 -80
WIRE 384 -48 384 -112
WIRE 384 -48 192 -48
WIRE -1664 -32 -1664 -64
WIRE -1712 -16 -1808 -16
WIRE -1328 0 -1328 -128
WIRE -1264 0 -1264 -32
WIRE -1264 0 -1328 0
WIRE -720 0 -720 -48
WIRE 384 0 384 -48
WIRE -1808 16 -1808 -16
WIRE -816 16 -816 -48
WIRE -1712 32 -1744 32
WIRE -1488 32 -1488 -176
WIRE -80 32 -256 32
WIRE -80 64 -80 32
WIRE 192 64 192 -48
WIRE 192 64 -80 64
WIRE 64 80 64 32
WIRE -1744 96 -1744 32
WIRE -1744 96 -1808 96
WIRE -1664 96 -1664 48
WIRE -1744 112 -1744 96
WIRE -512 112 -576 112
WIRE 480 144 480 -304
WIRE 656 144 480 144
WIRE 752 144 656 144
WIRE 960 144 896 144
WIRE -1328 160 -1328 0
WIRE -576 160 -576 112
WIRE 752 160 752 144
WIRE 1088 160 1008 160
WIRE 1232 160 1152 160
WIRE 656 176 656 144
WIRE 1232 176 1232 160
WIRE -1664 192 -1664 176
WIRE 1040 208 1008 208
WIRE -1488 272 -1488 112
WIRE -1328 272 -1328 240
WIRE -1328 272 -1488 272
WIRE -816 272 -816 80
WIRE -816 272 -1328 272
WIRE -720 272 -720 80
WIRE -720 272 -816 272
WIRE -576 272 -576 224
WIRE -576 272 -720 272
WIRE -384 272 -384 160
WIRE -384 272 -576 272
WIRE 64 272 64 144
WIRE 64 272 -384 272
WIRE 384 272 384 80
WIRE 384 272 64 272
WIRE 656 272 656 240
WIRE 656 272 384 272
WIRE 752 272 752 240
WIRE 752 272 656 272
WIRE 960 272 960 224
WIRE 960 272 752 272
WIRE 1040 272 1040 208
WIRE 1040 272 960 272
WIRE 1232 272 1232 256
WIRE 1232 272 1040 272
WIRE -1488 304 -1488 272
FLAG -1488 304 0
FLAG -1184 -160 Vin
FLAG -1744 112 0
FLAG -1664 -64 sw
FLAG -1664 192 0
FLAG 1200 144 good
FLAG -576 -160 0
SYMBOL voltage -1488 16 R0
WINDOW 3 10 12 Left 2
WINDOW 0 -32 10 Left 2
WINDOW 123 0 0 Left 2
SYMATTR Value 12
SYMATTR InstName V1
SYMATTR SpiceLine Rser=1m Cpar=1p
SYMBOL res -1344 144 R0
SYMATTR InstName R1
SYMATTR Value 10k
SYMATTR SpiceLine tol=1 pwr=.125
SYMBOL polcap 640 176 R0
WINDOW 3 24 56 Left 2
SYMATTR Value 1000µ
SYMATTR InstName CL
SYMATTR SpiceLine V=35 Irms=3.67 Rser=0.03 Lser=0
SYMATTR Description Capacitor
SYMATTR Type cap
SYMBOL res 736 144 R0
SYMATTR InstName RL
SYMATTR Value .12
SYMBOL zener -1248 -32 R180
WINDOW 0 24 64 Left 2
WINDOW 3 -22 -16 VRight 2
SYMATTR InstName D1
SYMATTR Value BZX84C12L
SYMBOL pmos -1408 -128 R270
WINDOW 0 -4 -13 VRight 2
WINDOW 3 -2 57 Right 2
SYMATTR InstName U1
SYMATTR Value IPD90P04P4L-04_L0
SYMATTR Prefix X
SYMBOL voltage -1808 0 R0
WINDOW 3 -138 -51 Invisible 2
WINDOW 123 0 0 Left 2
WINDOW 39 0 0 Left 2
SYMATTR Value PULSE(0 5 1 1U 1U 6 8)
SYMATTR InstName V2
SYMBOL sw -1664 64 M180
WINDOW 0 -51 3 Left 2
WINDOW 3 -112 109 Left 2
SYMATTR InstName S2
SYMATTR Value SWITCH
SYMBOL res -1680 80 R0
SYMATTR InstName R10
SYMATTR Value 10k
SYMBOL voltage 1232 160 M0
WINDOW 3 -138 -51 Invisible 2
WINDOW 123 0 0 Left 2
WINDOW 39 0 0 Left 2
SYMATTR Value PULSE(0 5 3 1U 1U 0.25 0.5 5)
SYMATTR InstName V3
SYMBOL sw 960 240 R180
WINDOW 0 -51 3 Left 2
WINDOW 3 -112 109 Left 2
SYMATTR InstName S1
SYMATTR Value SWITCH
SYMBOL res 912 128 R90
WINDOW 0 59 74 VBottom 2
WINDOW 3 37 32 VTop 2
SYMATTR InstName R13
SYMATTR Value 0
SYMBOL Digital\\and 1120 112 M0
WINDOW 3 -59 121 Left 2
SYMATTR Value Ref=1.5
SYMATTR InstName A1
SYMATTR Value2 Vhigh=5 Vlow=0
SYMATTR SpiceLine Td=2n  Trise=10n Tfall=10n
SYMATTR SpiceLine2 tripdt=5n
SYMBOL PowerProducts\\LT4256-2 -384 16 R0
SYMATTR InstName U2
SYMBOL nmos -16 -256 R270
SYMATTR InstName M1
SYMATTR Value PSMN2R630YLC
SYMBOL res 48 -208 R0
SYMATTR InstName R2
SYMATTR Value 10
SYMBOL res 48 -64 R0
SYMATTR InstName R3
SYMATTR Value 100
SYMBOL cap 48 80 R0
SYMATTR InstName C1
SYMATTR Value 10n
SYMBOL res -320 -320 R90
WINDOW 0 0 56 VBottom 2
WINDOW 3 32 56 VTop 2
SYMATTR InstName R4
SYMATTR Value 1.5m
SYMBOL res 368 -208 R0
SYMATTR InstName R5
SYMATTR Value 20k
SYMBOL res 368 -16 R0
SYMATTR InstName R6
SYMATTR Value 10k
SYMBOL res -736 -208 R0
SYMATTR InstName R7
SYMATTR Value 20k
SYMBOL res -736 -16 R0
SYMATTR InstName R8
SYMATTR Value 10k
SYMBOL cap -832 16 R0
SYMATTR InstName C2
SYMATTR Value .1µ
SYMBOL cap -592 160 R0
SYMATTR InstName C3
SYMATTR Value 200n
SYMBOL zener 128 -288 R0
SYMATTR InstName D2
SYMATTR Value EDZV11B
SYMBOL zener -560 -192 R180
WINDOW 0 24 64 Left 2
WINDOW 3 24 0 Left 2
SYMATTR InstName D3
SYMATTR Value 1N5371B
TEXT -1320 312 Left 2 !.tran 0 10 0 startup
TEXT -976 312 Left 2 !.lib OptiMOS-P2_40V.lib
TEXT -520 312 Left 2 !.model SWITCH SW(ROn=.01 Roff=100Meg Vt=3 Vh=0)
TEXT -1296 -256 Center 3 ;Reverse voltage\nprotection
TEXT 768 312 Left 3 ;Simulated load
TEXT 680 344 Left 2 ;(Connect R13 to enable fast pulsed load)
TEXT -1712 -176 Center 3 ;Simulated\non/off switch
RECTANGLE Normal 1312 112 512 288 2
RECTANGLE Normal -1440 288 -1152 -192 2
RECTANGLE Normal -1568 224 -1856 -112 2
