Version 4
SHEET 1 2268 1624
WIRE -864 -160 -976 -160
WIRE -672 -160 -768 -160
WIRE -512 -160 -672 -160
WIRE -144 -160 -512 -160
WIRE 48 -160 -144 -160
WIRE 176 -160 48 -160
WIRE -512 -112 -512 -160
WIRE 48 -112 48 -160
WIRE -672 -80 -672 -160
WIRE -144 0 -144 -160
WIRE -784 16 -784 -112
WIRE -672 16 -672 -16
WIRE -672 16 -784 16
WIRE -512 16 -512 -32
WIRE -464 16 -512 16
WIRE -192 16 -384 16
WIRE 176 16 176 -160
WIRE -64 32 -80 32
WIRE 48 32 48 -32
WIRE 48 32 16 32
WIRE 96 32 48 32
WIRE 128 32 96 32
WIRE -976 48 -976 -160
WIRE -192 48 -288 48
WIRE -288 96 -288 48
WIRE -288 96 -432 96
WIRE -784 128 -784 16
WIRE -512 144 -512 16
WIRE -432 144 -432 96
WIRE -288 160 -288 96
WIRE -256 160 -288 160
WIRE 176 160 176 112
WIRE 176 160 -176 160
WIRE 272 160 176 160
WIRE 400 160 272 160
WIRE -288 176 -288 160
WIRE 400 176 400 160
WIRE 272 192 272 160
WIRE -976 288 -976 128
WIRE -784 288 -784 208
WIRE -784 288 -976 288
WIRE -512 288 -512 208
WIRE -512 288 -784 288
WIRE -432 288 -432 208
WIRE -432 288 -512 288
WIRE -288 288 -288 256
WIRE -288 288 -432 288
WIRE -144 288 -144 64
WIRE -144 288 -288 288
WIRE 272 288 272 256
WIRE 272 288 -144 288
WIRE 400 288 400 256
WIRE 400 288 272 288
WIRE -976 320 -976 288
FLAG -976 320 0
FLAG 400 160 Vs
FLAG 96 32 gate
SYMBOL voltage -976 32 R0
WINDOW 3 40 45 Left 2
WINDOW 123 0 0 Left 2
WINDOW 39 35 80 Left 2
SYMATTR Value 28
SYMATTR SpiceLine Rser=.02
SYMATTR InstName V1
SYMBOL res -800 112 R0
SYMATTR InstName R1
SYMATTR Value 1k
SYMATTR SpiceLine tol=1 pwr=.125
SYMBOL polcap 256 192 R0
WINDOW 3 24 56 Left 2
SYMATTR Value 7800µ
SYMATTR InstName CL
SYMATTR SpiceLine V=35 Irms=3.67 Rser=0.03 Lser=0
SYMATTR Description Capacitor
SYMATTR Type cap
SYMBOL res 384 160 R0
SYMATTR InstName RL
SYMATTR Value 24
SYMBOL zener -656 -16 R180
WINDOW 0 24 64 Left 2
WINDOW 3 -126 -1 Left 2
SYMATTR InstName D1
SYMATTR Value BZX84C12L
SYMBOL pmos -864 -112 R270
WINDOW 0 85 -13 VRight 2
WINDOW 3 87 60 VRight 2
SYMATTR InstName U1
SYMATTR Value IPD90P04P4L-04_L0
SYMATTR Prefix X
SYMBOL pmos 128 112 M180
WINDOW 3 66 63 Left 2
SYMATTR Value IPD90P04P4L-04_L0
SYMATTR InstName U3
SYMATTR Prefix X
SYMBOL cap -528 144 R0
SYMATTR InstName C1
SYMATTR Value 2.2µ
SYMBOL res -528 -128 R0
SYMATTR InstName R2
SYMATTR Value 200k
SYMBOL res -160 144 R90
WINDOW 0 0 56 VBottom 2
WINDOW 3 32 56 VTop 2
SYMATTR InstName R3
SYMATTR Value 10k
SYMBOL res -272 272 R180
WINDOW 0 36 76 Left 2
WINDOW 3 36 40 Left 2
SYMATTR InstName R4
SYMATTR Value 10k
SYMBOL res -368 0 R90
WINDOW 0 0 56 VBottom 2
WINDOW 3 32 56 VTop 2
SYMATTR InstName R5
SYMATTR Value 1m
SYMBOL res 32 -128 R0
SYMATTR InstName R6
SYMATTR Value 20k
SYMBOL res 32 16 R90
WINDOW 0 0 56 VBottom 2
WINDOW 3 32 56 VTop 2
SYMATTR InstName R7
SYMATTR Value 100k
SYMBOL cap -448 144 R0
SYMATTR InstName C2
SYMATTR Value 2.2n
SYMBOL LM293 -144 48 R0
SYMATTR InstName U2
TEXT -1056 408 Left 2 !.tran 0 3 0 startup
TEXT -1056 448 Left 2 !.lib OptiMOS-P2_40V.lib
